Version 4
SHEET 1 880 680
WIRE 32 144 -16 144
WIRE 176 144 112 144
WIRE 288 144 240 144
WIRE 400 144 368 144
WIRE 496 144 400 144
WIRE 400 160 400 144
WIRE 64 224 -16 224
WIRE 176 224 64 224
WIRE 400 224 400 208
WIRE 400 224 240 224
WIRE 496 224 400 224
WIRE 64 256 64 224
WIRE 400 256 400 224
FLAG 64 256 0
FLAG 400 256 0
FLAG 208 336 0
SYMBOL voltage -16 128 R0
WINDOW 0 -71 20 Left 2
WINDOW 3 -75 48 Left 2
WINDOW 123 -75 76 Left 2
WINDOW 39 0 0 Left 0
SYMATTR InstName V1
SYMATTR Value 5
SYMATTR Value2 AC 1 0
SYMBOL res 128 128 R90
WINDOW 0 0 56 VBottom 2
WINDOW 3 32 56 VTop 2
SYMATTR InstName R1
SYMATTR Value 5
SYMBOL res 480 128 R0
SYMATTR InstName R3
SYMATTR Value 20
SYMBOL cap 384 144 R0
WINDOW 0 40 27 Left 2
SYMATTR InstName C1
SYMATTR Value 10µ
SYMBOL ideal_transformer 160 128 R0
WINDOW 3 -51 -35 Left 2
SYMATTR InstName X1
SYMBOL voltage 208 240 R0
WINDOW 123 24 124 Left 2
WINDOW 39 0 0 Left 0
SYMATTR InstName V2
SYMATTR Value 0.5
SYMATTR Value2 AC 0 0
SYMBOL ind 272 160 R270
WINDOW 0 32 56 VTop 2
WINDOW 3 5 56 VBottom 2
SYMATTR InstName L1
SYMATTR Value 10µ
TEXT -88 328 Left 2 !;tran 2s
TEXT -89 301 Left 2 !.ac dec 10 1 1meg
