Version 4
SHEET 1 880 680
WIRE 16 144 16 112
WIRE 16 256 16 224
WIRE 112 256 112 208
FLAG 112 256 0
FLAG 16 256 0
SYMBOL bv 112 112 R0
SYMATTR InstName B1
SYMATTR Value V=L*B
SYMBOL param_test_hierarchical_block 16 128 R0
WINDOW 39 24 44 Left 2
SYMATTR InstName X1
SYMATTR SpiceLine X=10 Y=5
TEXT 264 160 Left 2 !.param L=5 B=5
TEXT 264 240 Left 2 !.tran 5
