Version 4
SHEET 1 880 680
WIRE 208 144 80 144
WIRE 272 144 208 144
WIRE 208 160 208 144
WIRE 80 176 80 144
WIRE 272 176 272 144
WIRE 144 256 80 256
WIRE 208 256 208 240
WIRE 208 256 144 256
WIRE 272 256 272 240
WIRE 272 256 208 256
WIRE 144 272 144 256
FLAG 144 272 0
SYMBOL current 80 256 R180
WINDOW 0 24 80 Left 2
WINDOW 3 24 0 Left 2
WINDOW 123 0 0 Left 0
WINDOW 39 0 0 Left 0
SYMATTR InstName I1
SYMATTR Value PULSE(0 1 0 0.01 0.01 1 1 1)
SYMBOL cap 256 176 R0
SYMATTR InstName C1
SYMATTR Value Q=1*x
TEXT 30 296 Left 2 !.tran 3
