Version 4
SHEET 1 880 680
SYMBOL diode 224 160 R0
SYMATTR InstName D1
SYMBOL diode 144 160 R0
SYMATTR InstName D2
SYMBOL res 48 144 R0
SYMATTR InstName R1
SYMBOL voltage -336 64 R0
SYMATTR InstName V1
SYMBOL voltage -336 224 R0
SYMATTR InstName V2
