Version 4
SHEET 1 1144 756
WIRE -80 -32 -384 -32
WIRE 144 -32 -16 -32
WIRE 256 -32 224 -32
WIRE 416 -32 336 -32
WIRE 560 -32 416 -32
WIRE 640 -32 560 -32
WIRE -384 -16 -384 -32
WIRE 416 0 416 -32
WIRE 560 48 560 -32
WIRE 416 96 416 80
WIRE -384 208 -384 64
WIRE -48 208 -48 112
WIRE -48 208 -384 208
WIRE 416 208 416 160
WIRE 416 208 -48 208
WIRE 560 208 560 128
WIRE 560 208 416 208
WIRE -384 256 -384 208
WIRE -112 256 -112 144
WIRE -176 320 -176 144
WIRE 224 320 96 320
WIRE 304 320 288 320
WIRE 512 336 416 336
WIRE 640 336 512 336
WIRE -112 368 -112 336
WIRE 416 368 416 336
WIRE 512 368 512 336
WIRE 96 416 96 320
WIRE 128 416 96 416
WIRE 224 416 208 416
WIRE 304 416 304 320
WIRE 304 416 288 416
WIRE 240 496 144 496
WIRE 240 528 240 496
WIRE 304 544 304 416
WIRE 304 544 272 544
WIRE 416 544 416 448
WIRE 416 544 304 544
WIRE 512 544 512 512
WIRE 512 544 416 544
WIRE 96 560 96 416
WIRE 96 560 48 560
WIRE 208 560 96 560
WIRE 320 576 272 576
WIRE 416 576 416 544
WIRE 144 592 144 496
WIRE 240 624 240 592
WIRE 320 688 320 656
WIRE 416 688 416 656
WIRE 416 688 320 688
WIRE 144 704 144 672
WIRE 416 736 416 688
FLAG 416 736 0
FLAG -384 256 0
FLAG 240 624 0
FLAG 144 704 0
FLAG 640 336 Vout
FLAG 640 -32 Vout
FLAG 48 560 opampOut
FLAG -112 368 0
FLAG -176 320 d2
SYMBOL res 496 352 R0
SYMATTR InstName R1
SYMATTR Value 1.1k
SYMBOL cap 496 448 R0
SYMATTR InstName C1
SYMATTR Value 9.1n
SYMBOL res 400 352 R0
SYMATTR InstName R2
SYMATTR Value 10k
SYMBOL res 400 560 R0
SYMATTR InstName R3
SYMATTR Value 10k
SYMBOL voltage 320 560 R0
WINDOW 123 0 0 Left 0
WINDOW 39 0 0 Left 0
SYMATTR InstName V1
SYMATTR Value 2.5
SYMBOL cap 288 400 R90
WINDOW 0 0 32 VBottom 2
WINDOW 3 32 32 VTop 2
SYMATTR InstName C2
SYMATTR Value 20.6n
SYMBOL cap 288 304 R90
WINDOW 0 0 32 VBottom 2
WINDOW 3 32 32 VTop 2
SYMATTR InstName C3
SYMATTR Value 2.3n
SYMBOL res 224 400 R90
WINDOW 0 0 56 VBottom 2
WINDOW 3 32 56 VTop 2
SYMATTR InstName R4
SYMATTR Value 4.9k
SYMBOL voltage -384 -32 R0
WINDOW 123 0 0 Left 0
WINDOW 39 0 0 Left 0
SYMATTR InstName V2
SYMATTR Value 10
SYMBOL ind 128 -16 R270
WINDOW 0 32 56 VTop 2
WINDOW 3 5 56 VBottom 2
SYMATTR InstName L1
SYMATTR Value 75µ
SYMBOL res 352 -48 R90
WINDOW 0 0 56 VBottom 2
WINDOW 3 32 56 VTop 2
SYMATTR InstName R5
SYMATTR Value 20m
SYMBOL res 400 -16 R0
SYMATTR InstName R6
SYMATTR Value 70m
SYMBOL cap 400 96 R0
SYMATTR InstName C4
SYMATTR Value 100µ
SYMBOL voltage 144 576 R0
WINDOW 123 0 0 Left 0
WINDOW 39 0 0 Left 0
SYMATTR InstName V3
SYMATTR Value 10
SYMBOL res 544 32 R0
SYMATTR InstName R7
SYMATTR Value R=if(time>10m,10,100)
SYMBOL DCM_VM_transformer_model -96 -48 R0
WINDOW 39 49 -35 Left 0
SYMATTR SpiceLine L=75u fsw=100k
SYMATTR InstName X1
SYMBOL bv -112 240 R0
SYMATTR InstName B1
SYMATTR Value V=V(opampOut)/10
SYMBOL OpAmps\\UniversalOpAmp2 240 560 M0
SYMATTR InstName U2
TEXT -232 648 Left 2 !.tran 0 15ms 0 100n uic
