Version 4
SHEET 1 880 680
WIRE 160 144 16 144
WIRE 304 144 224 144
WIRE 96 224 16 224
WIRE 160 224 96 224
WIRE 304 224 224 224
WIRE 96 240 96 224
WIRE 304 240 304 224
FLAG 192 336 0
FLAG 96 240 0
FLAG 304 240 0
SYMBOL voltage 16 128 R0
WINDOW 123 0 0 Left 0
WINDOW 39 0 0 Left 0
SYMATTR InstName V1
SYMATTR Value 5
SYMBOL res 288 128 R0
SYMATTR InstName R1
SYMATTR Value 10
SYMBOL voltage 192 240 R0
WINDOW 123 0 0 Left 0
WINDOW 39 0 0 Left 0
SYMATTR InstName V2
SYMATTR Value 0.5
SYMBOL ideal_transformer 144 128 R0
SYMATTR InstName X1
TEXT -16 360 Left 2 !.tran 1s
