Version 4
SHEET 1 880 680
WIRE 112 256 112 208
FLAG 112 256 0
SYMBOL bv 112 112 R0
SYMATTR InstName B1
SYMATTR Value V=L*B
TEXT 264 160 Left 2 !.param L=5 B=5
TEXT 264 240 Left 2 !.tran 5
