* RSL020P03 PMOSFET model
* Model Generated by ROHM
* All Rights Reserved
* Commercial Use or
* Resale Restricted
* Date: 2009/03/06
*********************D G S
.MODEL RSL020P03 PMOS
+ LEVEL=3
+ L=2.0000E-6
+ W=1
+ KP=14.188E-6
+ RS=10.000E-3
+ RD=0
+ VTO=-2.1311
+ RDS=30.000E6
+ TOX=2.0000E-6
+ CGSO=265p
+ CGDO=28p
+ CBD=0
+ RG=0
+ N=2
+ RB=1.0000E-3
+ GAMMA=0.7
+ ETA=0.002
+ KAPPA=0
+ UO=300

